<?xml version="1.0" encoding="UTF-8"?>

<!-- generated on 2026-01-09T12:10:34.685785+05:30 by Eclipse SUMO sumo 1.25.0
-->

<sumoConfiguration xmlns:xsi="http://www.w3.org/2001/XMLSchema-instance" xsi:noNamespaceSchemaLocation="http://sumo.dlr.de/xsd/sumoConfiguration.xsd">

    <configuration>
        <configuration-file value=""/>
    </configuration>

    <input>
        <net-file value="test.net.xml"/>
        <route-files value="test.rou.xml"/>
        <additional-files value="test.add.xml"/>
    </input>

    <gui_only>
        <edgedata-files value=""/>
    </gui_only>

</sumoConfiguration>
