<net xmlns:xsi="http://www.w3.org/2001/XMLSchema-instance" version="1.20" junctionCornerDetail="5" limitTurnSpeed="5.50" avoidOverlap="0" xsi:noNamespaceSchemaLocation="http://sumo.dlr.de/xsd/net_file.xsd">
<location netOffset="0.00,0.00" convBoundary="-204.77,-64.88,144.75,132.82" origBoundary="-10000000000.00,-10000000000.00,10000000000.00,10000000000.00" projParameter="!"/>
<edge id=":Node1_0" function="internal">
<lane id=":Node1_0_0" index="0" speed="11.12" length="28.14" shape="-194.36,57.99 -201.98,56.87 -207.44,53.59 -210.75,48.14 -211.90,40.53"/>
<lane id=":Node1_0_1" index="1" speed="10.10" length="23.02" shape="-194.35,54.79 -200.58,53.87 -205.05,51.19 -207.76,46.73 -208.70,40.50"/>
<lane id=":Node1_0_2" index="2" speed="8.96" length="17.91" shape="-194.34,51.59 -199.19,50.88 -202.66,48.79 -204.77,45.32 -205.50,40.48"/>
</edge>
<edge id=":Node1_3" function="internal">
<lane id=":Node1_3_0" index="0" speed="3.90" length="2.56" shape="-195.90,40.40 -195.79,41.09 -195.49,41.59 -195.00,41.88 -194.30,41.99"/>
<lane id=":Node1_3_1" index="1" speed="6.08" length="7.67" shape="-199.10,40.43 -198.79,42.50 -197.88,43.99 -196.39,44.88 -194.32,45.19"/>
<lane id=":Node1_3_2" index="2" speed="7.66" length="12.79" shape="-202.30,40.45 -201.78,43.91 -200.27,46.39 -197.79,47.88 -194.33,48.39"/>
</edge>
<edge id=":Node2_0" function="internal">
<lane id=":Node2_0_0" index="0" speed="6.57" length="9.21" shape="-21.22,58.65 -23.74,58.99 -25.54,60.04 -26.64,61.81 -27.01,64.28"/>
</edge>
<edge id=":Node2_1" function="internal">
<lane id=":Node2_1_0" index="0" speed="13.89" length="27.36" shape="-21.22,58.65 -48.58,58.53"/>
<lane id=":Node2_1_1" index="1" speed="13.89" length="27.36" shape="-21.20,55.45 -48.57,55.33"/>
<lane id=":Node2_1_2" index="2" speed="13.89" length="27.36" shape="-21.19,52.25 -48.55,52.13"/>
</edge>
<edge id=":Node2_4" function="internal">
<lane id=":Node2_4_0" index="0" speed="10.34" length="4.98" shape="-21.19,52.25 -26.11,51.52"/>
</edge>
<edge id=":Node2_20" function="internal">
<lane id=":Node2_20_0" index="0" speed="10.34" length="19.69" shape="-26.11,51.52 -27.88,51.26 -32.63,48.35 -35.42,43.54 -36.25,36.82"/>
</edge>
<edge id=":Node2_5" function="internal">
<lane id=":Node2_5_0" index="0" speed="6.48" length="9.03" shape="-26.65,37.00 -26.34,39.46 -25.32,41.23 -23.59,42.29 -21.13,42.65"/>
</edge>
<edge id=":Node2_6" function="internal">
<lane id=":Node2_6_0" index="0" speed="13.89" length="27.32" shape="-26.65,37.00 -27.01,64.28"/>
<lane id=":Node2_6_1" index="1" speed="13.89" length="27.32" shape="-29.85,36.94 -30.21,64.25"/>
<lane id=":Node2_6_2" index="2" speed="13.89" length="27.32" shape="-33.05,36.88 -33.41,64.23"/>
</edge>
<edge id=":Node2_9" function="internal">
<lane id=":Node2_9_0" index="0" speed="10.46" length="4.86" shape="-33.05,36.88 -33.82,41.68"/>
</edge>
<edge id=":Node2_21" function="internal">
<lane id=":Node2_21_0" index="0" speed="10.46" length="19.85" shape="-33.82,41.68 -34.13,43.57 -37.07,48.35 -41.88,51.20 -48.55,52.13"/>
</edge>
<edge id=":Node2_10" function="internal">
<lane id=":Node2_10_0" index="0" speed="6.66" length="9.41" shape="-48.52,42.53 -45.99,42.17 -44.17,41.08 -43.05,39.26 -42.64,36.70"/>
</edge>
<edge id=":Node2_11" function="internal">
<lane id=":Node2_11_0" index="0" speed="13.89" length="27.38" shape="-48.52,42.53 -21.13,42.65"/>
<lane id=":Node2_11_1" index="1" speed="13.89" length="27.38" shape="-48.53,45.73 -21.15,45.85"/>
<lane id=":Node2_11_2" index="2" speed="13.89" length="27.38" shape="-48.54,48.93 -21.17,49.05"/>
</edge>
<edge id=":Node2_14" function="internal">
<lane id=":Node2_14_0" index="0" speed="10.36" length="5.04" shape="-48.54,48.93 -43.56,49.66"/>
</edge>
<edge id=":Node2_22" function="internal">
<lane id=":Node2_22_0" index="0" speed="10.36" length="19.52" shape="-43.56,49.66 -41.88,49.91 -37.14,52.78 -34.32,57.56 -33.41,64.23"/>
</edge>
<edge id=":Node2_15" function="internal">
<lane id=":Node2_15_0" index="0" speed="6.50" length="9.03" shape="-43.01,64.16 -43.35,61.70 -44.38,59.95 -46.13,58.89 -48.58,58.53"/>
</edge>
<edge id=":Node2_16" function="internal">
<lane id=":Node2_16_0" index="0" speed="13.89" length="27.43" shape="-43.01,64.16 -42.64,36.70"/>
<lane id=":Node2_16_1" index="1" speed="13.89" length="27.43" shape="-39.81,64.18 -39.45,36.76"/>
<lane id=":Node2_16_2" index="2" speed="13.89" length="27.43" shape="-36.61,64.21 -36.25,36.82"/>
</edge>
<edge id=":Node2_19" function="internal">
<lane id=":Node2_19_0" index="0" speed="10.40" length="5.19" shape="-36.61,64.21 -35.84,59.07"/>
</edge>
<edge id=":Node2_23" function="internal">
<lane id=":Node2_23_0" index="0" speed="10.40" length="19.47" shape="-35.84,59.07 -35.61,57.55 -32.69,52.80 -27.88,49.97 -21.17,49.05"/>
</edge>
<edge id=":Node3_0" function="internal">
<lane id=":Node3_0_0" index="0" speed="11.12" length="27.99" shape="150.14,42.32 148.88,49.86 145.50,55.24 140.03,58.44 132.45,59.48"/>
<lane id=":Node3_0_1" index="1" speed="10.10" length="22.90" shape="146.94,42.24 145.91,48.41 143.15,52.81 138.67,55.43 132.47,56.28"/>
<lane id=":Node3_0_2" index="2" speed="8.96" length="17.81" shape="143.74,42.16 142.94,46.96 140.79,50.38 137.31,52.42 132.49,53.08"/>
</edge>
<edge id=":Node3_3" function="internal">
<lane id=":Node3_3_0" index="0" speed="3.91" length="2.54" shape="132.54,43.48 133.23,43.39 133.73,43.09 134.03,42.61 134.15,41.92"/>
<lane id=":Node3_3_1" index="1" speed="6.08" length="7.63" shape="132.52,46.68 134.59,46.40 136.08,45.52 137.00,44.06 137.35,42.00"/>
<lane id=":Node3_3_2" index="2" speed="7.66" length="12.72" shape="132.50,49.88 135.95,49.41 138.44,47.95 139.97,45.51 140.54,42.08"/>
</edge>
<edge id=":Node4_0" function="internal">
<lane id=":Node4_0_0" index="0" speed="11.12" length="28.68" shape="135.10,-70.76 142.88,-69.56 148.38,-66.16 151.58,-60.55 152.51,-52.73"/>
<lane id=":Node4_0_1" index="1" speed="10.10" length="23.46" shape="135.07,-67.56 141.43,-66.58 145.93,-63.80 148.55,-59.20 149.31,-52.81"/>
<lane id=":Node4_0_2" index="2" speed="8.96" length="18.25" shape="135.03,-64.36 139.98,-63.60 143.48,-61.43 145.52,-57.86 146.11,-52.89"/>
</edge>
<edge id=":Node4_3" function="internal">
<lane id=":Node4_3_0" index="0" speed="3.90" length="2.61" shape="136.51,-53.13 136.43,-53.84 136.13,-54.35 135.64,-54.66 134.93,-54.76"/>
<lane id=":Node4_3_1" index="1" speed="6.08" length="7.82" shape="139.71,-53.05 139.46,-55.18 138.58,-56.71 137.08,-57.64 134.96,-57.96"/>
<lane id=":Node4_3_2" index="2" speed="7.65" length="13.03" shape="142.91,-52.97 142.49,-56.52 141.03,-59.07 138.53,-60.62 135.00,-61.16"/>
</edge>
<edge id=":Node5_0" function="internal">
<lane id=":Node5_0_0" index="0" speed="6.59" length="9.23" shape="-19.27,-56.42 -21.72,-56.08 -23.49,-55.00 -24.57,-53.19 -24.97,-50.64"/>
</edge>
<edge id=":Node5_1" function="internal">
<lane id=":Node5_1_0" index="0" speed="13.89" length="27.24" shape="-19.27,-56.42 -46.48,-56.59"/>
<lane id=":Node5_1_1" index="1" speed="13.89" length="27.24" shape="-19.23,-59.62 -46.48,-59.79"/>
<lane id=":Node5_1_2" index="2" speed="13.89" length="27.24" shape="-19.20,-62.82 -46.47,-62.99"/>
</edge>
<edge id=":Node5_4" function="internal">
<lane id=":Node5_4_0" index="0" speed="13.89" length="27.33" shape="-46.45,-72.59 -19.10,-72.41"/>
<lane id=":Node5_4_1" index="1" speed="13.89" length="27.33" shape="-46.46,-69.39 -19.13,-69.21"/>
<lane id=":Node5_4_2" index="2" speed="13.89" length="27.33" shape="-46.46,-66.19 -19.16,-66.02"/>
</edge>
<edge id=":Node5_7" function="internal">
<lane id=":Node5_7_0" index="0" speed="10.86" length="6.21" shape="-46.46,-66.19 -40.30,-65.44"/>
<lane id=":Node5_7_1" index="1" speed="10.34" length="5.16" shape="-46.46,-66.19 -41.36,-65.45"/>
</edge>
<edge id=":Node5_13" function="internal">
<lane id=":Node5_13_0" index="0" speed="10.86" length="21.17" shape="-40.30,-65.44 -38.35,-65.20 -32.59,-62.30 -29.20,-57.46 -28.17,-50.70"/>
<lane id=":Node5_13_1" index="0" speed="10.34" length="19.55" shape="-41.36,-65.45 -39.75,-65.21 -34.99,-62.32 -32.20,-57.50 -31.36,-50.76"/>
</edge>
<edge id=":Node5_9" function="internal">
<lane id=":Node5_9_0" index="0" speed="6.47" length="9.03" shape="-40.96,-50.95 -41.27,-53.41 -42.29,-55.17 -44.03,-56.23 -46.48,-56.59"/>
<lane id=":Node5_9_1" index="1" speed="7.97" length="14.26" shape="-37.76,-50.89 -38.24,-54.77 -39.86,-57.55 -42.60,-59.22 -46.48,-59.79"/>
</edge>
<edge id=":Node5_11" function="internal">
<lane id=":Node5_11_0" index="0" speed="11.41" length="29.75" shape="-37.76,-50.89 -36.47,-58.98 -32.93,-64.73 -27.15,-68.14 -19.13,-69.21"/>
<lane id=":Node5_11_1" index="1" speed="10.42" length="24.62" shape="-34.56,-50.83 -33.49,-57.53 -30.57,-62.30 -25.79,-65.13 -19.16,-66.02"/>
</edge>
<edge id=":Node6_0" function="internal">
<lane id=":Node6_0_0" index="0" speed="11.12" length="28.59" shape="-212.69,-55.12 -211.64,-62.89 -208.36,-68.44 -202.83,-71.77 -195.06,-72.86"/>
<lane id=":Node6_0_1" index="1" speed="10.10" length="23.39" shape="-209.49,-55.14 -208.63,-61.51 -205.94,-66.05 -201.42,-68.76 -195.06,-69.66"/>
<lane id=":Node6_0_2" index="2" speed="8.96" length="18.20" shape="-206.29,-55.17 -205.62,-60.12 -203.53,-63.65 -200.01,-65.76 -195.07,-66.46"/>
</edge>
<edge id=":Node6_3" function="internal">
<lane id=":Node6_3_0" index="0" speed="3.90" length="2.60" shape="-195.09,-56.86 -195.79,-56.76 -196.30,-56.46 -196.59,-55.96 -196.69,-55.25"/>
<lane id=":Node6_3_1" index="1" speed="6.08" length="7.80" shape="-195.08,-60.06 -197.20,-59.76 -198.71,-58.86 -199.60,-57.34 -199.89,-55.22"/>
<lane id=":Node6_3_2" index="2" speed="7.65" length="13.00" shape="-195.08,-63.26 -198.61,-62.76 -201.12,-61.25 -202.61,-58.73 -203.09,-55.20"/>
</edge>
<edge id="-E24" from="Node4" to="Node3" priority="-1">
<lane id="-E24_0" index="0" speed="13.89" length="95.07" shape="152.51,-52.73 150.14,42.32"/>
<lane id="-E24_1" index="1" speed="13.89" length="95.07" shape="149.31,-52.81 146.94,42.24"/>
<lane id="-E24_2" index="2" speed="13.89" length="95.07" shape="146.11,-52.89 143.74,42.16"/>
</edge>
<edge id="-E25" from="Node5" to="Node4" priority="-1">
<lane id="-E25_0" index="0" speed="13.89" length="154.20" shape="-19.10,-72.41 135.10,-70.76"/>
<lane id="-E25_1" index="1" speed="13.89" length="154.20" shape="-19.13,-69.21 135.07,-67.56"/>
<lane id="-E25_2" index="2" speed="13.89" length="154.20" shape="-19.16,-66.02 135.03,-64.36"/>
</edge>
<edge id="-E26" from="Node6" to="Node5" priority="-1">
<lane id="-E26_0" index="0" speed="13.89" length="148.60" shape="-195.06,-72.86 -46.45,-72.59"/>
<lane id="-E26_1" index="1" speed="13.89" length="148.60" shape="-195.06,-69.66 -46.46,-69.39"/>
<lane id="-E26_2" index="2" speed="13.89" length="148.60" shape="-195.07,-66.46 -46.46,-66.19"/>
</edge>
<edge id="-E27" from="Node1" to="Node6" priority="-1">
<lane id="-E27_0" index="0" speed="13.89" length="95.65" shape="-211.90,40.53 -212.69,-55.12"/>
<lane id="-E27_1" index="1" speed="13.89" length="95.65" shape="-208.70,40.50 -209.49,-55.14"/>
<lane id="-E27_2" index="2" speed="13.89" length="95.65" shape="-205.50,40.48 -206.29,-55.17"/>
</edge>
<edge id="E24" from="Node3" to="Node4" priority="-1">
<lane id="E24_0" index="0" speed="13.89" length="95.07" shape="134.15,41.92 136.51,-53.13"/>
<lane id="E24_1" index="1" speed="13.89" length="95.07" shape="137.35,42.00 139.71,-53.05"/>
<lane id="E24_2" index="2" speed="13.89" length="95.07" shape="140.54,42.08 142.91,-52.97"/>
</edge>
<edge id="E25" from="Node4" to="Node5" priority="-1">
<lane id="E25_0" index="0" speed="13.89" length="154.20" shape="134.93,-54.76 -19.27,-56.42"/>
<lane id="E25_1" index="1" speed="13.89" length="154.20" shape="134.96,-57.96 -19.23,-59.62"/>
<lane id="E25_2" index="2" speed="13.89" length="154.20" shape="135.00,-61.16 -19.20,-62.82"/>
</edge>
<edge id="E26" from="Node5" to="Node6" priority="-1">
<lane id="E26_0" index="0" speed="13.89" length="148.60" shape="-46.48,-56.59 -195.09,-56.86"/>
<lane id="E26_1" index="1" speed="13.89" length="148.60" shape="-46.48,-59.79 -195.08,-60.06"/>
<lane id="E26_2" index="2" speed="13.89" length="148.60" shape="-46.47,-62.99 -195.08,-63.26"/>
</edge>
<edge id="E27" from="Node6" to="Node1" priority="-1">
<lane id="E27_0" index="0" speed="13.89" length="95.65" shape="-196.69,-55.25 -195.90,40.40"/>
<lane id="E27_1" index="1" speed="13.89" length="95.65" shape="-199.89,-55.22 -199.10,40.43"/>
<lane id="E27_2" index="2" speed="13.89" length="95.65" shape="-203.09,-55.20 -202.30,40.45"/>
</edge>
<edge id="Node1_2_EB" from="Node1" to="Node2" priority="-1">
<lane id="Node1_2_EB_0" index="0" speed="13.89" length="145.79" shape="-194.30,41.99 -48.52,42.53"/>
<lane id="Node1_2_EB_1" index="1" speed="13.89" length="145.79" shape="-194.32,45.19 -48.53,45.73"/>
<lane id="Node1_2_EB_2" index="2" speed="13.89" length="145.79" shape="-194.33,48.39 -48.54,48.93"/>
</edge>
<edge id="Node1_2_WB" from="Node2" to="Node1" priority="-1">
<lane id="Node1_2_WB_0" index="0" speed="13.89" length="145.79" shape="-48.58,58.53 -194.36,57.99"/>
<lane id="Node1_2_WB_1" index="1" speed="13.89" length="145.79" shape="-48.57,55.33 -194.35,54.79"/>
<lane id="Node1_2_WB_2" index="2" speed="13.89" length="145.79" shape="-48.55,52.13 -194.34,51.59"/>
</edge>
<edge id="Node2_3_EB" from="Node2" to="Node3" priority="-1">
<lane id="Node2_3_EB_0" index="0" speed="13.89" length="153.67" shape="-21.13,42.65 132.54,43.48"/>
<lane id="Node2_3_EB_1" index="1" speed="13.89" length="153.67" shape="-21.15,45.85 132.52,46.68"/>
<lane id="Node2_3_EB_2" index="2" speed="13.89" length="153.67" shape="-21.17,49.05 132.50,49.88"/>
</edge>
<edge id="Node2_3_WB" from="Node3" to="Node2" priority="-1">
<lane id="Node2_3_WB_0" index="0" speed="13.89" length="153.67" shape="132.45,59.48 -21.22,58.65"/>
<lane id="Node2_3_WB_1" index="1" speed="13.89" length="153.67" shape="132.47,56.28 -21.20,55.45"/>
<lane id="Node2_3_WB_2" index="2" speed="13.89" length="153.67" shape="132.49,53.08 -21.19,52.25"/>
</edge>
<edge id="Node2_5NB" from="Node5" to="Node2" priority="-1">
<lane id="Node2_5NB_0" index="0" speed="13.89" length="87.66" shape="-24.97,-50.64 -26.65,37.00"/>
<lane id="Node2_5NB_1" index="1" speed="13.89" length="87.66" shape="-28.17,-50.70 -29.85,36.94"/>
<lane id="Node2_5NB_2" index="2" speed="13.89" length="87.66" shape="-31.36,-50.76 -33.05,36.88"/>
</edge>
<edge id="Node2_5_SB" from="Node2" to="Node5" priority="-1">
<lane id="Node2_5_SB_0" index="0" speed="13.89" length="87.66" shape="-42.64,36.70 -40.96,-50.95"/>
<lane id="Node2_5_SB_1" index="1" speed="13.89" length="87.66" shape="-39.45,36.76 -37.76,-50.89"/>
<lane id="Node2_5_SB_2" index="2" speed="13.89" length="87.66" shape="-36.25,36.82 -34.56,-50.83"/>
</edge>
<edge id="Node2_7_NB" from="Node2" to="Node7" priority="-1">
<lane id="Node2_7_NB_0" index="0" speed="13.89" length="68.60" shape="-27.01,64.28 -27.54,132.88"/>
<lane id="Node2_7_NB_1" index="1" speed="13.89" length="68.60" shape="-30.21,64.25 -30.74,132.86"/>
<lane id="Node2_7_NB_2" index="2" speed="13.89" length="68.60" shape="-33.41,64.23 -33.94,132.83"/>
</edge>
<edge id="Node2_7_SB" from="Node7" to="Node2" priority="-1">
<lane id="Node2_7_SB_0" index="0" speed="13.89" length="68.60" shape="-43.54,132.76 -43.01,64.16"/>
<lane id="Node2_7_SB_1" index="1" speed="13.89" length="68.60" shape="-40.34,132.78 -39.81,64.18"/>
<lane id="Node2_7_SB_2" index="2" speed="13.89" length="68.60" shape="-37.14,132.81 -36.61,64.21"/>
</edge>
<tlLogic id="Node2" type="static" programID="0" offset="0">
<phase duration="42" state="GGGGgrrrrrGGGGgrrrrr"/>
<phase duration="3" state="yyyyyrrrrryyyyyrrrrr"/>
<phase duration="42" state="rrrrrGGGGgrrrrrGGGGg"/>
<phase duration="3" state="rrrrryyyyyrrrrryyyyy"/>
</tlLogic>
<tlLogic id="Node5" type="static" programID="0" offset="0">
<phase duration="42" state="GGGGGGGggrrrr"/>
<phase duration="3" state="Gyyyyyyyyrrrr"/>
<phase duration="42" state="GrrrrrrrrGGGG"/>
<phase duration="3" state="Grrrrrrrryyyy"/>
</tlLogic>
<junction id="Node1" type="priority" x="-203.82" y="49.95" incLanes="Node1_2_WB_0 Node1_2_WB_1 Node1_2_WB_2 E27_0 E27_1 E27_2" intLanes=":Node1_0_0 :Node1_0_1 :Node1_0_2 :Node1_3_0 :Node1_3_1 :Node1_3_2" shape="-194.37,59.59 -194.30,40.39 -213.50,40.54 -212.92,46.34 -211.30,51.09 -208.64,54.79 -204.93,57.44 -200.17,59.04">
<request index="0" response="000000" foes="000000" cont="0"/>
<request index="1" response="000000" foes="000000" cont="0"/>
<request index="2" response="000000" foes="000000" cont="0"/>
<request index="3" response="000000" foes="000000" cont="0"/>
<request index="4" response="000000" foes="000000" cont="0"/>
<request index="5" response="000000" foes="000000" cont="0"/>
</junction>
<junction id="Node2" type="traffic_light" x="-34.91" y="50.58" incLanes="Node2_3_WB_0 Node2_3_WB_1 Node2_3_WB_2 Node2_5NB_0 Node2_5NB_1 Node2_5NB_2 Node1_2_EB_0 Node1_2_EB_1 Node1_2_EB_2 Node2_7_SB_0 Node2_7_SB_1 Node2_7_SB_2" intLanes=":Node2_0_0 :Node2_1_0 :Node2_1_1 :Node2_1_2 :Node2_20_0 :Node2_5_0 :Node2_6_0 :Node2_6_1 :Node2_6_2 :Node2_21_0 :Node2_10_0 :Node2_11_0 :Node2_11_1 :Node2_11_2 :Node2_22_0 :Node2_15_0 :Node2_16_0 :Node2_16_1 :Node2_16_2 :Node2_23_0" shape="-21.23,60.25 -21.13,41.05 -23.34,40.60 -24.11,40.04 -24.65,39.26 -24.96,38.26 -25.05,37.03 -44.24,36.66 -44.76,39.04 -45.35,39.87 -46.18,40.46 -47.23,40.82 -48.51,40.93 -48.58,60.13 -46.36,60.58 -45.59,61.14 -45.04,61.92 -44.72,62.92 -44.61,64.14 -25.41,64.29 -24.94,62.04 -24.35,61.25 -23.54,60.69 -22.50,60.36">
<request index="0" response="00000000000000000000" foes="00000000000111000000" cont="0"/>
<request index="1" response="10000000000000000000" foes="11111100001111000000" cont="0"/>
<request index="2" response="10000000000000000000" foes="11111100001111000000" cont="0"/>
<request index="3" response="10000000001000000000" foes="11111100001111000000" cont="0"/>
<request index="4" response="10000011101000000000" foes="11110011101111000000" cont="1"/>
<request index="5" response="00000011100000000000" foes="00000011100000000000" cont="0"/>
<request index="6" response="00000111100000011111" foes="10000111100000011111" cont="0"/>
<request index="7" response="00000111100000011111" foes="10000111100000011111" cont="0"/>
<request index="8" response="00000111100000011111" foes="10000111100000011111" cont="0"/>
<request index="9" response="01110111100000011110" foes="01110111100000011110" cont="1"/>
<request index="10" response="00000000000000000000" foes="01110000000000000000" cont="0"/>
<request index="11" response="00000000001000000000" foes="11110000001111110000" cont="0"/>
<request index="12" response="00000000001000000000" foes="11110000001111110000" cont="0"/>
<request index="13" response="10000000001000000000" foes="11110000001111110000" cont="0"/>
<request index="14" response="10000000001000001110" foes="11110000001111001110" cont="1"/>
<request index="15" response="00000000000000001110" foes="00000000000000001110" cont="0"/>
<request index="16" response="00000111110000011110" foes="00000111111000011110" cont="0"/>
<request index="17" response="00000111110000011110" foes="00000111111000011110" cont="0"/>
<request index="18" response="00000111110000011110" foes="00000111111000011110" cont="0"/>
<request index="19" response="00000111100111011110" foes="00000111100111011110" cont="1"/>
</junction>
<junction id="Node3" type="priority" x="141.91" y="51.53" incLanes="-E24_0 -E24_1 -E24_2 Node2_3_EB_0 Node2_3_EB_1 Node2_3_EB_2" intLanes=":Node3_0_0 :Node3_0_1 :Node3_0_2 :Node3_3_0 :Node3_3_1 :Node3_3_2" shape="151.74,42.36 132.55,41.88 132.44,61.08 138.21,60.59 142.96,59.04 146.68,56.45 149.39,52.80 151.08,48.11">
<request index="0" response="000000" foes="000000" cont="0"/>
<request index="1" response="000000" foes="000000" cont="0"/>
<request index="2" response="000000" foes="000000" cont="0"/>
<request index="3" response="000000" foes="000000" cont="0"/>
<request index="4" response="000000" foes="000000" cont="0"/>
<request index="5" response="000000" foes="000000" cont="0"/>
</junction>
<junction id="Node4" type="priority" x="144.75" y="-62.66" incLanes="-E25_0 -E25_1 -E25_2 E24_0 E24_1 E24_2" intLanes=":Node4_0_0 :Node4_0_1 :Node4_0_2 :Node4_3_0 :Node4_3_1 :Node4_3_2" shape="135.12,-72.36 134.91,-53.16 154.10,-52.69 153.71,-58.64 152.21,-63.53 149.60,-67.34 145.88,-70.08 141.05,-71.76">
<request index="0" response="000000" foes="000000" cont="0"/>
<request index="1" response="000000" foes="000000" cont="0"/>
<request index="2" response="000000" foes="000000" cont="0"/>
<request index="3" response="000000" foes="000000" cont="0"/>
<request index="4" response="000000" foes="000000" cont="0"/>
<request index="5" response="000000" foes="000000" cont="0"/>
</junction>
<junction id="Node5" type="traffic_light" x="-32.70" y="-64.56" incLanes="E25_0 E25_1 E25_2 -E26_0 -E26_1 -E26_2 Node2_5_SB_0 Node2_5_SB_1 Node2_5_SB_2" intLanes=":Node5_0_0 :Node5_1_0 :Node5_1_1 :Node5_1_2 :Node5_4_0 :Node5_4_1 :Node5_4_2 :Node5_13_0 :Node5_13_1 :Node5_9_0 :Node5_9_1 :Node5_11_0 :Node5_11_1" shape="-19.28,-54.82 -19.08,-74.01 -46.45,-74.19 -46.49,-54.99 -44.27,-54.54 -43.50,-53.98 -42.96,-53.20 -42.65,-52.20 -42.56,-50.98 -23.37,-50.61 -22.88,-52.97 -22.30,-53.79 -21.52,-54.37 -20.51,-54.71">
<request index="0" response="0000000000000" foes="0000000000000" cont="0"/>
<request index="1" response="0000000000000" foes="1111110000000" cont="0"/>
<request index="2" response="0000000000000" foes="1111110000000" cont="0"/>
<request index="3" response="0000000000000" foes="1111110000000" cont="0"/>
<request index="4" response="0000000000000" foes="1100000000000" cont="0"/>
<request index="5" response="0000000000000" foes="1100000000000" cont="0"/>
<request index="6" response="0000000000000" foes="1100000000000" cont="0"/>
<request index="7" response="0000000001110" foes="1100000001110" cont="1"/>
<request index="8" response="0000000001110" foes="1100000001110" cont="1"/>
<request index="9" response="0000000001110" foes="0000000001110" cont="0"/>
<request index="10" response="0000000001110" foes="0000000001110" cont="0"/>
<request index="11" response="0000111111110" foes="0000111111110" cont="0"/>
<request index="12" response="0000111111110" foes="0000111111110" cont="0"/>
</junction>
<junction id="Node6" type="priority" x="-204.77" y="-64.88" incLanes="-E27_0 -E27_1 -E27_2 E26_0 E26_1 E26_2" intLanes=":Node6_0_0 :Node6_0_1 :Node6_0_2 :Node6_3_0 :Node6_3_1 :Node6_3_2" shape="-214.29,-55.10 -195.09,-55.26 -195.05,-74.46 -200.98,-73.93 -205.81,-72.33 -209.56,-69.64 -212.22,-65.87 -213.80,-61.03">
<request index="0" response="000000" foes="000000" cont="0"/>
<request index="1" response="000000" foes="000000" cont="0"/>
<request index="2" response="000000" foes="000000" cont="0"/>
<request index="3" response="000000" foes="000000" cont="0"/>
<request index="4" response="000000" foes="000000" cont="0"/>
<request index="5" response="000000" foes="000000" cont="0"/>
</junction>
<junction id="Node7" type="dead_end" x="-35.54" y="132.82" incLanes="Node2_7_NB_0 Node2_7_NB_1 Node2_7_NB_2" intLanes="" shape="-35.54,132.82 -25.94,132.89 -35.54,132.82"/>
<junction id=":Node2_20_0" type="internal" x="-26.11" y="51.52" incLanes=":Node2_4_0 Node1_2_EB_0 Node1_2_EB_1 Node1_2_EB_2" intLanes=":Node2_6_0 :Node2_6_1 :Node2_6_2 :Node2_9_0 :Node2_10_0 :Node2_11_0 :Node2_11_1 :Node2_11_2 :Node2_16_0 :Node2_16_1 :Node2_16_2 :Node2_19_0"/>
<junction id=":Node2_21_0" type="internal" x="-33.82" y="41.68" incLanes=":Node2_9_0 Node2_7_SB_0 Node2_7_SB_1 Node2_7_SB_2" intLanes=":Node2_1_0 :Node2_1_1 :Node2_1_2 :Node2_4_0 :Node2_11_0 :Node2_11_1 :Node2_11_2 :Node2_14_0 :Node2_15_0 :Node2_16_0 :Node2_16_1 :Node2_16_2"/>
<junction id=":Node2_22_0" type="internal" x="-43.56" y="49.66" incLanes=":Node2_14_0 Node2_3_WB_0 Node2_3_WB_1 Node2_3_WB_2" intLanes=":Node2_0_0 :Node2_1_0 :Node2_1_1 :Node2_1_2 :Node2_6_0 :Node2_6_1 :Node2_6_2 :Node2_9_0 :Node2_16_0 :Node2_16_1 :Node2_16_2 :Node2_19_0"/>
<junction id=":Node2_23_0" type="internal" x="-35.84" y="59.07" incLanes=":Node2_19_0 Node2_5NB_0 Node2_5NB_1 Node2_5NB_2" intLanes=":Node2_1_0 :Node2_1_1 :Node2_1_2 :Node2_4_0 :Node2_5_0 :Node2_6_0 :Node2_6_1 :Node2_6_2 :Node2_11_0 :Node2_11_1 :Node2_11_2 :Node2_14_0"/>
<junction id=":Node5_13_0" type="internal" x="-40.30" y="-65.44" incLanes=":Node5_7_0 E25_0 E25_1 E25_2" intLanes=":Node5_1_0 :Node5_1_1 :Node5_1_2 :Node5_11_0 :Node5_11_1"/>
<junction id=":Node5_13_1" type="internal" x="-41.36" y="-65.45" incLanes=":Node5_7_1 E25_0 E25_1 E25_2" intLanes=":Node5_1_0 :Node5_1_1 :Node5_1_2 :Node5_11_0 :Node5_11_1"/>
<connection from="-E24" to="Node2_3_WB" fromLane="0" toLane="0" via=":Node3_0_0" dir="l" state="M"/>
<connection from="-E24" to="Node2_3_WB" fromLane="1" toLane="1" via=":Node3_0_1" dir="l" state="M"/>
<connection from="-E24" to="Node2_3_WB" fromLane="2" toLane="2" via=":Node3_0_2" dir="l" state="M"/>
<connection from="-E25" to="-E24" fromLane="0" toLane="0" via=":Node4_0_0" dir="l" state="M"/>
<connection from="-E25" to="-E24" fromLane="1" toLane="1" via=":Node4_0_1" dir="l" state="M"/>
<connection from="-E25" to="-E24" fromLane="2" toLane="2" via=":Node4_0_2" dir="l" state="M"/>
<connection from="-E26" to="-E25" fromLane="0" toLane="0" via=":Node5_4_0" tl="Node5" linkIndex="4" dir="s" state="O"/>
<connection from="-E26" to="-E25" fromLane="1" toLane="1" via=":Node5_4_1" tl="Node5" linkIndex="5" dir="s" state="O"/>
<connection from="-E26" to="-E25" fromLane="2" toLane="2" via=":Node5_4_2" tl="Node5" linkIndex="6" dir="s" state="O"/>
<connection from="-E26" to="Node2_5NB" fromLane="2" toLane="1" via=":Node5_7_0" tl="Node5" linkIndex="7" dir="l" state="o"/>
<connection from="-E26" to="Node2_5NB" fromLane="2" toLane="2" via=":Node5_7_1" tl="Node5" linkIndex="8" dir="l" state="o"/>
<connection from="-E27" to="-E26" fromLane="0" toLane="0" via=":Node6_0_0" dir="l" state="M"/>
<connection from="-E27" to="-E26" fromLane="1" toLane="1" via=":Node6_0_1" dir="l" state="M"/>
<connection from="-E27" to="-E26" fromLane="2" toLane="2" via=":Node6_0_2" dir="l" state="M"/>
<connection from="E24" to="E25" fromLane="0" toLane="0" via=":Node4_3_0" dir="r" state="M"/>
<connection from="E24" to="E25" fromLane="1" toLane="1" via=":Node4_3_1" dir="r" state="M"/>
<connection from="E24" to="E25" fromLane="2" toLane="2" via=":Node4_3_2" dir="r" state="M"/>
<connection from="E25" to="Node2_5NB" fromLane="0" toLane="0" via=":Node5_0_0" tl="Node5" linkIndex="0" dir="r" state="O"/>
<connection from="E25" to="E26" fromLane="0" toLane="0" via=":Node5_1_0" tl="Node5" linkIndex="1" dir="s" state="O"/>
<connection from="E25" to="E26" fromLane="1" toLane="1" via=":Node5_1_1" tl="Node5" linkIndex="2" dir="s" state="O"/>
<connection from="E25" to="E26" fromLane="2" toLane="2" via=":Node5_1_2" tl="Node5" linkIndex="3" dir="s" state="O"/>
<connection from="E26" to="E27" fromLane="0" toLane="0" via=":Node6_3_0" dir="r" state="M"/>
<connection from="E26" to="E27" fromLane="1" toLane="1" via=":Node6_3_1" dir="r" state="M"/>
<connection from="E26" to="E27" fromLane="2" toLane="2" via=":Node6_3_2" dir="r" state="M"/>
<connection from="E27" to="Node1_2_EB" fromLane="0" toLane="0" via=":Node1_3_0" dir="r" state="M"/>
<connection from="E27" to="Node1_2_EB" fromLane="1" toLane="1" via=":Node1_3_1" dir="r" state="M"/>
<connection from="E27" to="Node1_2_EB" fromLane="2" toLane="2" via=":Node1_3_2" dir="r" state="M"/>
<connection from="Node1_2_EB" to="Node2_5_SB" fromLane="0" toLane="0" via=":Node2_10_0" tl="Node2" linkIndex="10" dir="r" state="O"/>
<connection from="Node1_2_EB" to="Node2_3_EB" fromLane="0" toLane="0" via=":Node2_11_0" tl="Node2" linkIndex="11" dir="s" state="O"/>
<connection from="Node1_2_EB" to="Node2_3_EB" fromLane="1" toLane="1" via=":Node2_11_1" tl="Node2" linkIndex="12" dir="s" state="O"/>
<connection from="Node1_2_EB" to="Node2_3_EB" fromLane="2" toLane="2" via=":Node2_11_2" tl="Node2" linkIndex="13" dir="s" state="O"/>
<connection from="Node1_2_EB" to="Node2_7_NB" fromLane="2" toLane="2" via=":Node2_14_0" tl="Node2" linkIndex="14" dir="l" state="o"/>
<connection from="Node1_2_WB" to="-E27" fromLane="0" toLane="0" via=":Node1_0_0" dir="l" state="M"/>
<connection from="Node1_2_WB" to="-E27" fromLane="1" toLane="1" via=":Node1_0_1" dir="l" state="M"/>
<connection from="Node1_2_WB" to="-E27" fromLane="2" toLane="2" via=":Node1_0_2" dir="l" state="M"/>
<connection from="Node2_3_EB" to="E24" fromLane="0" toLane="0" via=":Node3_3_0" dir="r" state="M"/>
<connection from="Node2_3_EB" to="E24" fromLane="1" toLane="1" via=":Node3_3_1" dir="r" state="M"/>
<connection from="Node2_3_EB" to="E24" fromLane="2" toLane="2" via=":Node3_3_2" dir="r" state="M"/>
<connection from="Node2_3_WB" to="Node2_7_NB" fromLane="0" toLane="0" via=":Node2_0_0" tl="Node2" linkIndex="0" dir="r" state="O"/>
<connection from="Node2_3_WB" to="Node1_2_WB" fromLane="0" toLane="0" via=":Node2_1_0" tl="Node2" linkIndex="1" dir="s" state="O"/>
<connection from="Node2_3_WB" to="Node1_2_WB" fromLane="1" toLane="1" via=":Node2_1_1" tl="Node2" linkIndex="2" dir="s" state="O"/>
<connection from="Node2_3_WB" to="Node1_2_WB" fromLane="2" toLane="2" via=":Node2_1_2" tl="Node2" linkIndex="3" dir="s" state="O"/>
<connection from="Node2_3_WB" to="Node2_5_SB" fromLane="2" toLane="2" via=":Node2_4_0" tl="Node2" linkIndex="4" dir="l" state="o"/>
<connection from="Node2_5NB" to="Node2_3_EB" fromLane="0" toLane="0" via=":Node2_5_0" tl="Node2" linkIndex="5" dir="r" state="o"/>
<connection from="Node2_5NB" to="Node2_7_NB" fromLane="0" toLane="0" via=":Node2_6_0" tl="Node2" linkIndex="6" dir="s" state="o"/>
<connection from="Node2_5NB" to="Node2_7_NB" fromLane="1" toLane="1" via=":Node2_6_1" tl="Node2" linkIndex="7" dir="s" state="o"/>
<connection from="Node2_5NB" to="Node2_7_NB" fromLane="2" toLane="2" via=":Node2_6_2" tl="Node2" linkIndex="8" dir="s" state="o"/>
<connection from="Node2_5NB" to="Node1_2_WB" fromLane="2" toLane="2" via=":Node2_9_0" tl="Node2" linkIndex="9" dir="l" state="o"/>