<additional xmlns:xsi="http://www.w3.org/2001/XMLSchema-instance" xsi:noNamespaceSchemaLocation="http://sumo.dlr.de/xsd/additional_file.xsd">
<!--  Detectors  -->
<laneAreaDetector id="Node1_2_EB_0" lane="Node1_2_EB_0" pos="121.20" length="20.00" period="300.00" file="e2_0.xml"/>
<laneAreaDetector id="Node1_2_EB_1" lane="Node1_2_EB_1" pos="119.52" length="20.00" period="300.00" file="e2_1.xml"/>
<laneAreaDetector id="Node1_2_EB_2" lane="Node1_2_EB_2" pos="119.20" length="20.00" period="300.00" file="e2_2.xml"/>
<laneAreaDetector id="Node2_3_WB_0" lane="Node2_3_WB_0" pos="112.60" length="20.00" period="300.00" file="e2_0.xml"/>
<laneAreaDetector id="Node2_3_WB_1" lane="Node2_3_WB_1" pos="115.13" length="20.00" period="300.00" file="e2_1.xml"/>
<laneAreaDetector id="Node2_3_WB_2" lane="Node2_3_WB_2" pos="114.03" length="20.00" period="300.00" file="e2_2.xml"/>
<laneAreaDetector id="Node2_5NB_0" lane="Node2_5NB_0" pos="62.78" length="20.00" period="300.00" file="e2_3.xml"/>
<laneAreaDetector id="Node2_5NB_1" lane="Node2_5NB_1" pos="64.53" length="20.00" period="300.00" file="e2_4.xml"/>
<laneAreaDetector id="Node2_5NB_2" lane="Node2_5NB_2" pos="64.59" length="20.00" period="300.00" file="e2_5.xml"/>
<laneAreaDetector id="Node2_7_SB_0" lane="Node2_7_SB_0" pos="43.19" length="20.00" period="300.00" file="e2_3.xml"/>
<laneAreaDetector id="Node2_7_SB_1" lane="Node2_7_SB_1" pos="42.40" length="20.00" period="300.00" file="e2_4.xml"/>
<laneAreaDetector id="Node2_7_SB_2" lane="Node2_7_SB_2" pos="42.91" length="20.00" period="300.00" file="e2_5.xml"/>
</additional>
