<routes xmlns:xsi="http://www.w3.org/2001/XMLSchema-instance" xsi:noNamespaceSchemaLocation="http://sumo.dlr.de/xsd/routes_file.xsd">
<vType id="standard_car" vClass="passenger" guiShape="passenger" accel="2.6" decel="4.5" sigma="0.5" length="5.0" minGap="2.5" maxSpeed="50"/>
<vType id="emergency" vClass="emergency" guiShape="emergency" color="1,0,0" accel="3.0" decel="4.5" length="6.0" minGap="2.5" maxSpeed="70"/>
<flow id="f_0" type="standard_car" begin="0.00" end="3600.00" perHour="1000.00" from="Node1_2_EB" to="E26" via="Node2_3_EB"/>
<flow id="f_1" type="standard_car" begin="0.00" end="3600.00" perHour="1000.00" from="Node2_7_SB" to="E26" via="Node2_5_SB"/>
<flow id="f_2" type="standard_car" begin="0.00" end="3600.00" perHour="1000.00" from="-E26" to="Node1_2_WB" via="-E25"/>
<trip id="t_0" type="emergency" depart="50.00" from="Node1_2_EB" to="-E25" via="Node2_5_SB"/>
</routes>
